/*--------------------------------*- C++ -*----------------------------------*\
  =========                 |
  \\      /  F ield         | OpenFOAM: The Open Source CFD Toolbox
   \\    /   O peration     | Website:  https://openfoam.org
    \\  /    A nd           | Version:  7
     \\/     M anipulation  |
\*---------------------------------------------------------------------------*/
FoamFile
{
    version     2.0;
    format      binary;
    class       polyBoundaryMesh;
    location    "constant/polyMesh";
    object      boundary;
}
// * * * * * * * * * * * * * * * * * * * * * * * * * * * * * * * * * * * * * //

9
(
    barreldown
    {
        type            wall;
        inGroups        List<word> 1(wall);
        nFaces          14334;
        startFace       269647;
    }
    barrelup
    {
        type            wall;
        inGroups        List<word> 1(wall);
        nFaces          1276;
        startFace       283981;
    }
    hopperwall
    {
        type            wall;
        inGroups        List<word> 1(wall);
        nFaces          0;
        startFace       285257;
    }
    inlet
    {
        type            patch;
        nFaces          0;
        startFace       285257;
    }
    outlet
    {
        type            patch;
        nFaces          60;
        startFace       285257;
    }
    screwup-part-fluido_en_interior3_fluidup
    {
        type            wall;
        inGroups        List<word> 1(wall);
        nFaces          1344;
        startFace       285317;
    }
    screwup-part-fluido_en_interior1_hopper
    {
        type            wall;
        inGroups        List<word> 1(wall);
        nFaces          0;
        startFace       286661;
    }
    screwdown
    {
        type            wall;
        inGroups        List<word> 1(wall);
        nFaces          7795;
        startFace       286661;
    }
    procBoundary0to1
    {
        type            processor;
        inGroups        List<word> 1(processor);
        nFaces          657;
        startFace       294456;
        matchTolerance  0.0001;
        transform       unknown;
        myProcNo        0;
        neighbProcNo    1;
    }
)

// ************************************************************************* //
