/*--------------------------------*- C++ -*----------------------------------*\
  =========                 |
  \\      /  F ield         | OpenFOAM: The Open Source CFD Toolbox
   \\    /   O peration     | Website:  https://openfoam.org
    \\  /    A nd           | Version:  7
     \\/     M anipulation  |
\*---------------------------------------------------------------------------*/
FoamFile
{
    version     2.0;
    format      binary;
    class       polyBoundaryMesh;
    location    "constant/polyMesh";
    object      boundary;
}
// * * * * * * * * * * * * * * * * * * * * * * * * * * * * * * * * * * * * * //

13
(
    wall-component-fluido_en_interior3_layerdown
    {
        type            wall;
        inGroups        List<word> 1(wall);
        nFaces          0;
        startFace       128665;
    }
    wall-component-fluido_en_interior2_layerup
    {
        type            wall;
        inGroups        List<word> 1(wall);
        nFaces          0;
        startFace       128665;
    }
    barrelup
    {
        type            wall;
        inGroups        List<word> 1(wall);
        nFaces          2896;
        startFace       128665;
    }
    barreldown-component-fluido_en_interior3_layerdown
    {
        type            wall;
        inGroups        List<word> 1(wall);
        nFaces          0;
        startFace       131561;
    }
    barreldown-component-fluido_en_interior4_fluiddown
    {
        type            wall;
        inGroups        List<word> 1(wall);
        nFaces          0;
        startFace       131561;
    }
    screwup-component-fluido_en_interior1_fluidscrewup
    {
        type            wall;
        inGroups        List<word> 1(wall);
        nFaces          7483;
        startFace       131561;
    }
    screwup-component-fluido_en_interior2_layerup
    {
        type            wall;
        inGroups        List<word> 1(wall);
        nFaces          1008;
        startFace       139044;
    }
    screwdown-component-fluido_en_interior5_fluidscrewdown
    {
        type            wall;
        inGroups        List<word> 1(wall);
        nFaces          0;
        startFace       140052;
    }
    screwdown-component-fluido_en_interior3_layerdown
    {
        type            wall;
        inGroups        List<word> 1(wall);
        nFaces          0;
        startFace       140052;
    }
    inlet
    {
        type            patch;
        nFaces          0;
        startFace       140052;
    }
    outlet
    {
        type            patch;
        nFaces          0;
        startFace       140052;
    }
    procBoundary4to3
    {
        type            processor;
        inGroups        List<word> 1(processor);
        nFaces          920;
        startFace       140052;
        matchTolerance  0.0001;
        transform       unknown;
        myProcNo        4;
        neighbProcNo    3;
    }
    procBoundary4to5
    {
        type            processor;
        inGroups        List<word> 1(processor);
        nFaces          935;
        startFace       140972;
        matchTolerance  0.0001;
        transform       unknown;
        myProcNo        4;
        neighbProcNo    5;
    }
)

// ************************************************************************* //
