/*--------------------------------*- C++ -*----------------------------------*\
  =========                 |
  \\      /  F ield         | OpenFOAM: The Open Source CFD Toolbox
   \\    /   O peration     | Website:  https://openfoam.org
    \\  /    A nd           | Version:  7
     \\/     M anipulation  |
\*---------------------------------------------------------------------------*/
FoamFile
{
    version     2.0;
    format      binary;
    class       polyBoundaryMesh;
    location    "constant/polyMesh";
    object      boundary;
}
// * * * * * * * * * * * * * * * * * * * * * * * * * * * * * * * * * * * * * //

6
(
    wall1
    {
        type            wall;
        inGroups        List<word> 1(wall);
        nFaces          3099;
        startFace       70229;
    }
    wall2
    {
        type            wall;
        inGroups        List<word> 1(wall);
        nFaces          0;
        startFace       73328;
    }
    inlet
    {
        type            patch;
        nFaces          1119;
        startFace       73328;
    }
    outlet
    {
        type            patch;
        nFaces          0;
        startFace       74447;
    }
    screw
    {
        type            wall;
        inGroups        List<word> 1(wall);
        nFaces          3355;
        startFace       74447;
    }
    procBoundary5to4
    {
        type            processor;
        inGroups        List<word> 1(processor);
        nFaces          514;
        startFace       77802;
        matchTolerance  0.0001;
        transform       unknown;
        myProcNo        5;
        neighbProcNo    4;
    }
)

// ************************************************************************* //
