/*--------------------------------*- C++ -*----------------------------------*\
| =========                 |                                                 |
| \\      /  F ield         | OpenFOAM: The Open Source CFD Toolbox           |
|  \\    /   O peration     | Version:  v2112                                 |
|   \\  /    A nd           | Website:  www.openfoam.com                      |
|    \\/     M anipulation  |                                                 |
\*---------------------------------------------------------------------------*/
FoamFile
{
    version     2.0;
    format      ascii;
    class       dictionary;
    object      controlDict;
}
// * * * * * * * * * * * * * * * * * * * * * * * * * * * * * * * * * * * * * //

application     rhoPimpleFoam;

startFrom       startTime;

startTime       0;

stopAt          endTime;

endTime         1;

deltaT          5e-08;

writeControl    adjustableRunTime;

writeInterval   2;

purgeWrite      0;

writeFormat     binary;

writePrecision  6;

writeCompression off;

timeFormat      general;

timePrecision   6;

runTimeModifiable true;

adjustTimeStep true;
//_______below additional outputs and options
functions //https://www.openfoam.com/documentation/guides/latest/doc/guide-function-objects.html
{

	// Writes the residuals for each iteration step to a file in the postProcessing folder, graphing while solving via the "AllMonitor" script
	residual1 
	{
		type		residuals;
		libs		("libutilityFunctionObjects.so");
		writeControl    timeStep;
		writeInterval   1;
		fields (p U h);
	}

	// The fieldMinMax function object computes the values and locations of field minima and maxima. These are good indicators of calculation performance, e.g. to confirm that predicted results are within expected bounds, or how well a case is converging.
	minMax
	{
		type            volFieldValue;
		libs            ("libfieldFunctionObjects.so");
		fields          (U p);
		executeControl  writeTime;
		writeControl    writeTime;

		writeFields	false;
		log		false;

		regionType	all;
		operation	max;
	}

	writeThermophysicalProperties
	{
		type		writeObjects;
		libs		("libutilityFunctionObjects.so");
		objects	(thermo:alpha thermo:mu);
		//executeControl	timeStep;
		writeControl	writeTime;
		//writeInterval	60;
	}
}

// ************************************************************************* //
