/*--------------------------------*- C++ -*----------------------------------*\
  =========                 |
  \\      /  F ield         | OpenFOAM: The Open Source CFD Toolbox
   \\    /   O peration     | Website:  https://openfoam.org
    \\  /    A nd           | Version:  7
     \\/     M anipulation  |
\*---------------------------------------------------------------------------*/
FoamFile
{
    version     2.0;
    format      binary;
    class       polyBoundaryMesh;
    location    "constant/polyMesh";
    object      boundary;
}
// * * * * * * * * * * * * * * * * * * * * * * * * * * * * * * * * * * * * * //

7
(
    wall1
    {
        type            wall;
        inGroups        List<word> 1(wall);
        nFaces          3318;
        startFace       71539;
    }
    wall2
    {
        type            wall;
        inGroups        List<word> 1(wall);
        nFaces          0;
        startFace       74857;
    }
    inlet
    {
        type            patch;
        nFaces          0;
        startFace       74857;
    }
    outlet
    {
        type            patch;
        nFaces          0;
        startFace       74857;
    }
    screw
    {
        type            wall;
        inGroups        List<word> 1(wall);
        nFaces          3802;
        startFace       74857;
    }
    procBoundary2to1
    {
        type            processor;
        inGroups        List<word> 1(processor);
        nFaces          1042;
        startFace       78659;
        matchTolerance  0.0001;
        transform       unknown;
        myProcNo        2;
        neighbProcNo    1;
    }
    procBoundary2to3
    {
        type            processor;
        inGroups        List<word> 1(processor);
        nFaces          639;
        startFace       79701;
        matchTolerance  0.0001;
        transform       unknown;
        myProcNo        2;
        neighbProcNo    3;
    }
)

// ************************************************************************* //
