/*--------------------------------*- C++ -*----------------------------------*\
  =========                 |
  \\      /  F ield         | OpenFOAM: The Open Source CFD Toolbox
   \\    /   O peration     | Website:  https://openfoam.org
    \\  /    A nd           | Version:  7
     \\/     M anipulation  |
\*---------------------------------------------------------------------------*/
FoamFile
{
    version     2.0;
    format      binary;
    class       polyBoundaryMesh;
    location    "constant/polyMesh";
    object      boundary;
}
// * * * * * * * * * * * * * * * * * * * * * * * * * * * * * * * * * * * * * //

10
(
    barreldown
    {
        type            wall;
        inGroups        List<word> 1(wall);
        nFaces          0;
        startFace       272529;
    }
    barrelup
    {
        type            wall;
        inGroups        List<word> 1(wall);
        nFaces          0;
        startFace       272529;
    }
    hopperwall
    {
        type            wall;
        inGroups        List<word> 1(wall);
        nFaces          12074;
        startFace       272529;
    }
    inlet
    {
        type            patch;
        nFaces          0;
        startFace       284603;
    }
    outlet
    {
        type            patch;
        nFaces          0;
        startFace       284603;
    }
    screwup-part-fluido_en_interior3_fluidup
    {
        type            wall;
        inGroups        List<word> 1(wall);
        nFaces          0;
        startFace       284603;
    }
    screwup-part-fluido_en_interior1_hopper
    {
        type            wall;
        inGroups        List<word> 1(wall);
        nFaces          0;
        startFace       284603;
    }
    screwdown
    {
        type            wall;
        inGroups        List<word> 1(wall);
        nFaces          0;
        startFace       284603;
    }
    procBoundary2to1
    {
        type            processor;
        inGroups        List<word> 1(processor);
        nFaces          1791;
        startFace       284603;
        matchTolerance  0.0001;
        transform       unknown;
        myProcNo        2;
        neighbProcNo    1;
    }
    procBoundary2to3
    {
        type            processor;
        inGroups        List<word> 1(processor);
        nFaces          5833;
        startFace       286394;
        matchTolerance  0.0001;
        transform       unknown;
        myProcNo        2;
        neighbProcNo    3;
    }
)

// ************************************************************************* //
