/*--------------------------------*- C++ -*----------------------------------*\
  =========                 |
  \\      /  F ield         | OpenFOAM: The Open Source CFD Toolbox
   \\    /   O peration     | Website:  https://openfoam.org
    \\  /    A nd           | Version:  7
     \\/     M anipulation  |
\*---------------------------------------------------------------------------*/
FoamFile
{
    version     2.0;
    format      binary;
    class       polyBoundaryMesh;
    location    "constant/polyMesh";
    object      boundary;
}
// * * * * * * * * * * * * * * * * * * * * * * * * * * * * * * * * * * * * * //

11
(
    barrelup
    {
        type            wall;
        inGroups        List<word> 1(wall);
        nFaces          0;
        startFace       127933;
    }
    barreldown-component-fluido_en_interior3_layerdown
    {
        type            wall;
        inGroups        List<word> 1(wall);
        nFaces          3895;
        startFace       127933;
    }
    barreldown-component-fluido_en_interior4_fluiddown
    {
        type            wall;
        inGroups        List<word> 1(wall);
        nFaces          0;
        startFace       131828;
    }
    screwup-component-fluido_en_interior1_fluidscrewup
    {
        type            wall;
        inGroups        List<word> 1(wall);
        nFaces          0;
        startFace       131828;
    }
    screwup-component-fluido_en_interior2_layerup
    {
        type            wall;
        inGroups        List<word> 1(wall);
        nFaces          0;
        startFace       131828;
    }
    screwdown-component-fluido_en_interior3_layerdown
    {
        type            wall;
        inGroups        List<word> 1(wall);
        nFaces          1543;
        startFace       131828;
    }
    screwdown-component-fluido_en_interior5_fluidscrewdown
    {
        type            wall;
        inGroups        List<word> 1(wall);
        nFaces          7476;
        startFace       133371;
    }
    inlet
    {
        type            patch;
        nFaces          0;
        startFace       140847;
    }
    outlet
    {
        type            patch;
        nFaces          0;
        startFace       140847;
    }
    procBoundary1to0
    {
        type            processor;
        inGroups        List<word> 1(processor);
        nFaces          873;
        startFace       140847;
        matchTolerance  0.0001;
        transform       unknown;
        myProcNo        1;
        neighbProcNo    0;
    }
    procBoundary1to2
    {
        type            processor;
        inGroups        List<word> 1(processor);
        nFaces          919;
        startFace       141720;
        matchTolerance  0.0001;
        transform       unknown;
        myProcNo        1;
        neighbProcNo    2;
    }
)

// ************************************************************************* //
