/*--------------------------------*- C++ -*----------------------------------*\
| =========                 |                                                 |
| \\      /  F ield         | OpenFOAM: The Open Source CFD Toolbox           |
|  \\    /   O peration     | Version:  7.x                                   |
|   \\  /    A nd           | Web:      www.OpenFOAM.org                      |
|    \\/     M anipulation  |                                                 |
\*---------------------------------------------------------------------------*/
FoamFile
{
    version     2.0;
    format      ascii;
    class       dictionary;
    object      createPatchDict;
}
// * * * * * * * * * * * * * * * * * * * * * * * * * * * * * * * * * * * * * //

// Do a synchronisation of coupled points after creation of any patches.
// Note: this does not work with points that are on multiple coupled patches
//       with transformations (i.e. cyclics).
pointSync false;

// Patches to create.
patches
(
    {
        //- Master side patch
        name            AMI1;
        patchInfo
        {
            type            cyclicAMI;
            matchTolerance  0.0001;
            neighbourPatch  AMI2;
            transform       rotational;
            rotationAxis    (0 1 0);
            rotationCentre  (0 0 0);
        }
        constructFrom patches;
        patches (amistator-sys-component3_component1_barrel-amidown amistator-sys-component3_component2_barrel-amiup);
    }

    {
        //- Slave side patch
        name            AMI2;
        patchInfo
        {
            type            cyclicAMI;
            matchTolerance  0.0001;
            neighbourPatch  AMI1;
            transform       rotational;
            rotationAxis    (0 1 0);
            rotationCentre  (0 0 0);
        }
        constructFrom patches;
        patches (amirotor-sys-1-component3_component1_ami-screwdown amirotor-sys-1-component3_component2_ami-screwup);
    }
);

// ************************************************************************* //

