/*--------------------------------*- C++ -*----------------------------------*\
| =========                 |                                                 |
| \\      /  F ield         | OpenFOAM: The Open Source CFD Toolbox           |
|  \\    /   O peration     | Version:  dev                                   |
|   \\  /    A nd           | Web:      www.OpenFOAM.org                      |
|    \\/     M anipulation  |                                                 |
\*---------------------------------------------------------------------------*/
FoamFile
{
    version     2.0;
    format      ascii;
    class       dictionary;
    object      topoSetDict;
}

// * * * * * * * * * * * * * * * * * * * * * * * * * * * * * * * * * * * * * //

actions
(
    {
        name    rotif;
        type    cellSet;
        action  new;
        source  cylinderToCell;
        sourceInfo
        {
	    p1          (0 0.0025 0);
	    p2          (0 0.045 0);
	    radius      0.00401;
        }
    }
    {
        name    outerCells;
        type    cellSet;
        action  new;
        source  cellToCell;
        sourceInfo
        {
            set rotif;
        }
    }
    {
        name    outerCells;
        type    cellSet;
        action  invert;
    }

    {
        name    rotif;
        type    cellZoneSet;
        action  new;
        source  setToCellZone;
        sourceInfo
        {
            set     rotif;
        }
    }
);

// ************************************************************************* //
