/*--------------------------------*- C++ -*----------------------------------*\
  =========                 |
  \\      /  F ield         | OpenFOAM: The Open Source CFD Toolbox
   \\    /   O peration     | Website:  https://openfoam.org
    \\  /    A nd           | Version:  7
     \\/     M anipulation  |
\*---------------------------------------------------------------------------*/
FoamFile
{
    version     2.0;
    format      binary;
    class       polyBoundaryMesh;
    location    "constant/polyMesh";
    object      boundary;
}
// * * * * * * * * * * * * * * * * * * * * * * * * * * * * * * * * * * * * * //

5
(
    inlet
    {
        type            patch;
        nFaces          1280;
        startFace       916887;
    }
    outlet
    {
        type            patch;
        nFaces          136;
        startFace       918167;
    }
    wall2
    {
        type            wall;
        inGroups        List<word> 1(wall);
        nFaces          12511;
        startFace       918303;
    }
    wall1
    {
        type            wall;
        inGroups        List<word> 1(wall);
        nFaces          9207;
        startFace       930814;
    }
    screw
    {
        type            wall;
        inGroups        List<word> 1(wall);
        nFaces          46362;
        startFace       940021;
    }
)

// ************************************************************************* //
