/*--------------------------------*- C++ -*----------------------------------*\
| =========                 |                                                 |
| \\      /  F ield         | OpenFOAM: The Open Source CFD Toolbox           |
|  \\    /   O peration     | Version:  2112                                  |
|   \\  /    A nd           | Website:  www.openfoam.com                      |
|    \\/     M anipulation  |                                                 |
\*---------------------------------------------------------------------------*/
FoamFile
{
    version     2.0;
    format      binary;
    arch        "LSB;label=32;scalar=64";
    class       polyBoundaryMesh;
    location    "constant/polyMesh";
    object      boundary;
}
// * * * * * * * * * * * * * * * * * * * * * * * * * * * * * * * * * * * * * //

6
(
    front
    {
        type            empty;
        inGroups        1(wall);
        nFaces          2720;
        startFace       5323;
    }
    back
    {
        type            empty;
        inGroups        1(wall);
        nFaces          2720;
        startFace       8043;
    }
    input
    {
        type            patch;
        inGroups        1(wall);
        nFaces          32;
        startFace       10763;
    }
    output
    {
        type            patch;
        inGroups        1(wall);
        nFaces          32;
        startFace       10795;
    }
    wall2
    {
        type            wall;
        inGroups        1(wall);
        nFaces          90;
        startFace       10827;
    }
    wall1
    {
        type            wall;
        inGroups        1(wall);
        nFaces          80;
        startFace       10917;
    }
)

// ************************************************************************* //
