/*--------------------------------*- C++ -*----------------------------------*\
  =========                 |
  \\      /  F ield         | OpenFOAM: The Open Source CFD Toolbox
   \\    /   O peration     | Website:  https://openfoam.org
    \\  /    A nd           | Version:  7
     \\/     M anipulation  |
\*---------------------------------------------------------------------------*/
FoamFile
{
    version     2.0;
    format      binary;
    class       polyBoundaryMesh;
    location    "constant/polyMesh";
    object      boundary;
}
// * * * * * * * * * * * * * * * * * * * * * * * * * * * * * * * * * * * * * //

7
(
    wall1
    {
        type            wall;
        inGroups        List<word> 1(wall);
        nFaces          2218;
        startFace       68013;
    }
    wall2
    {
        type            wall;
        inGroups        List<word> 1(wall);
        nFaces          0;
        startFace       70231;
    }
    inlet
    {
        type            patch;
        nFaces          0;
        startFace       70231;
    }
    outlet
    {
        type            patch;
        nFaces          0;
        startFace       70231;
    }
    screw
    {
        type            wall;
        inGroups        List<word> 1(wall);
        nFaces          2787;
        startFace       70231;
    }
    procBoundary1to0
    {
        type            processor;
        inGroups        List<word> 1(processor);
        nFaces          933;
        startFace       73018;
        matchTolerance  0.0001;
        transform       unknown;
        myProcNo        1;
        neighbProcNo    0;
    }
    procBoundary1to2
    {
        type            processor;
        inGroups        List<word> 1(processor);
        nFaces          1042;
        startFace       73951;
        matchTolerance  0.0001;
        transform       unknown;
        myProcNo        1;
        neighbProcNo    2;
    }
)

// ************************************************************************* //
