/*--------------------------------*- C++ -*----------------------------------*\
  =========                 |
  \\      /  F ield         | OpenFOAM: The Open Source CFD Toolbox
   \\    /   O peration     | Website:  https://openfoam.org
    \\  /    A nd           | Version:  7
     \\/     M anipulation  |
\*---------------------------------------------------------------------------*/
FoamFile
{
    version     2.0;
    format      binary;
    class       polyBoundaryMesh;
    location    "constant/polyMesh";
    object      boundary;
}
// * * * * * * * * * * * * * * * * * * * * * * * * * * * * * * * * * * * * * //

6
(
    wall1
    {
        type            wall;
        inGroups        List<word> 1(wall);
        nFaces          912;
        startFace       65912;
    }
    wall2
    {
        type            wall;
        inGroups        List<word> 1(wall);
        nFaces          4188;
        startFace       66824;
    }
    inlet
    {
        type            patch;
        nFaces          0;
        startFace       71012;
    }
    outlet
    {
        type            patch;
        nFaces          66;
        startFace       71012;
    }
    screw
    {
        type            wall;
        inGroups        List<word> 1(wall);
        nFaces          0;
        startFace       71078;
    }
    procBoundary0to1
    {
        type            processor;
        inGroups        List<word> 1(processor);
        nFaces          933;
        startFace       71078;
        matchTolerance  0.0001;
        transform       unknown;
        myProcNo        0;
        neighbProcNo    1;
    }
)

// ************************************************************************* //
