/*--------------------------------*- C++ -*----------------------------------*\
| =========                 |                                                 |
| \\      /  F ield         | OpenFOAM: The Open Source CFD Toolbox           |
|  \\    /   O peration     | Version:  v2112                                 |
|   \\  /    A nd           | Website:  www.openfoam.com                      |
|    \\/     M anipulation  |                                                 |
\*---------------------------------------------------------------------------*/
FoamFile
{
    version     2.0;
    format      ascii;
    class       dictionary;
    object      fvSolution;
}
// * * * * * * * * * * * * * * * * * * * * * * * * * * * * * * * * * * * * * //

solvers
{
    "p.*"
    {
        solver          GAMG;
        tolerance       1e-08;
        relTol          0.01;
        smoother        GaussSeidel;
    }
    
    "rho.*"
    {
        solver          GAMG;
        tolerance       1e-08;
        relTol          0.01;
        smoother        GaussSeidel;
    } 

    "U.*"
    {
        solver          smoothSolver;
        smoother        symGaussSeidel;
        tolerance       1e-06;
        relTol          0.01;
    }

    "h.*"
    {
        solver          smoothSolver;
        smoother        symGaussSeidel;
        tolerance       1e-06;
        relTol          0.01;
    }
}

PIMPLE
{
    nOuterCorrectors         1;
    nCorrectors              2;
    nNonOrthogonalCorrectors 2;

    transonic       no;
    consistent      no;


    
    residualControl
    {
       "p.*"               1e-6;
        "U.*"                1e-5;
        "h.*" 		 1e-7;
    }
}

relaxationFactors
{

        "p.*"               0.3;
        "rho.*"             0.01;
        "U.*"               0.5;
        "h.*"               0.5;
}


// ************************************************************************* //
