/*--------------------------------*- C++ -*----------------------------------*\
  =========                 |
  \\      /  F ield         | OpenFOAM: The Open Source CFD Toolbox
   \\    /   O peration     | Website:  https://openfoam.org
    \\  /    A nd           | Version:  7
     \\/     M anipulation  |
\*---------------------------------------------------------------------------*/
FoamFile
{
    version     2.0;
    format      binary;
    class       polyBoundaryMesh;
    location    "constant/polyMesh";
    object      boundary;
}
// * * * * * * * * * * * * * * * * * * * * * * * * * * * * * * * * * * * * * //

9
(
    barreldown
    {
        type            wall;
        inGroups        List<word> 1(wall);
        nFaces          0;
        startFace       271074;
    }
    barrelup
    {
        type            wall;
        inGroups        List<word> 1(wall);
        nFaces          0;
        startFace       271074;
    }
    hopperwall
    {
        type            wall;
        inGroups        List<word> 1(wall);
        nFaces          5381;
        startFace       271074;
    }
    inlet
    {
        type            patch;
        nFaces          11394;
        startFace       276455;
    }
    outlet
    {
        type            patch;
        nFaces          0;
        startFace       287849;
    }
    screwup-part-fluido_en_interior3_fluidup
    {
        type            wall;
        inGroups        List<word> 1(wall);
        nFaces          0;
        startFace       287849;
    }
    screwup-part-fluido_en_interior1_hopper
    {
        type            wall;
        inGroups        List<word> 1(wall);
        nFaces          0;
        startFace       287849;
    }
    screwdown
    {
        type            wall;
        inGroups        List<word> 1(wall);
        nFaces          0;
        startFace       287849;
    }
    procBoundary3to2
    {
        type            processor;
        inGroups        List<word> 1(processor);
        nFaces          5833;
        startFace       287849;
        matchTolerance  0.0001;
        transform       unknown;
        myProcNo        3;
        neighbProcNo    2;
    }
)

// ************************************************************************* //
