/*--------------------------------*- C++ -*----------------------------------*\
| =========                 |                                                 |
| \\      /  F ield         | OpenFOAM: The Open Source CFD Toolbox           |
|  \\    /   O peration     | Version:  v2112                                 |
|   \\  /    A nd           | Website:  www.openfoam.com                      |
|    \\/     M anipulation  |                                                 |
\*---------------------------------------------------------------------------*/
FoamFile
{
    version     2.0;
    format      ascii;
    class       dictionary;
    object      thermophysicalProperties;
}
// * * * * * * * * * * * * * * * * * * * * * * * * * * * * * * * * * * * * * //

thermoType
{
    type            heRhoThermo;
    mixture         pureMixture;
    transport       polymerKWLF;
    thermo          hPolymer;
    equationOfState rhoPolymerEOS;
    specie          specie;
    energy          sensibleEnthalpy;
}

mixture
{
     specie
     {
        molWeight 190.9512; // aprox for HIPS (g/mol)
     }
     
     equationOfState // Tait EOS Coefficients (PS-Polystyrene)
    {
        b1m         0.000991;
        b2m         7.629e-7;
        b3m         1e+8;
        b4m         0.00494;
        b1s         0.0009969;
        b2s         3.791e-7;
        b3s         9e+7;
        b4s         0.004677;
        b5          362.15;
        b6          1e-7;
    }
    
        thermodynamics
    {
        Hf              0;
        Cp    		0;
    }
    
    transport // WLF coefficients (PS-Polystyrene)
    {
        mu0         6072;
        Tr          493.15;
        C1          9.2526;
        C2          188.6316;
        Pr          0.705;
	Tg	     378.15;
	TS		10;
	MS             5 ;
    }
}


// ************************************************************************* //
