/*--------------------------------*- C++ -*----------------------------------*\
  =========                 |
  \\      /  F ield         | OpenFOAM: The Open Source CFD Toolbox
   \\    /   O peration     | Website:  https://openfoam.org
    \\  /    A nd           | Version:  7
     \\/     M anipulation  |
\*---------------------------------------------------------------------------*/
FoamFile
{
    version     2.0;
    format      binary;
    class       polyBoundaryMesh;
    location    "constant/polyMesh";
    object      boundary;
}
// * * * * * * * * * * * * * * * * * * * * * * * * * * * * * * * * * * * * * //

5
(
    inlet
    {
        type            patch;
        nFaces          236;
        startFace       15801;
    }
    outlet
    {
        type            patch;
        nFaces          240;
        startFace       16037;
    }
    statorwall
    {
        type            wall;
        inGroups        List<word> 1(wall);
        nFaces          770;
        startFace       16277;
    }
    rotor
    {
        type            wall;
        inGroups        List<word> 1(wall);
        nFaces          0;
        startFace       17047;
    }
    procBoundary0to1
    {
        type            processor;
        inGroups        List<word> 1(processor);
        nFaces          1046;
        startFace       17047;
        matchTolerance  0.0001;
        transform       unknown;
        myProcNo        0;
        neighbProcNo    1;
    }
)

// ************************************************************************* //
