/*--------------------------------*- C++ -*----------------------------------*\
  =========                 |
  \\      /  F ield         | OpenFOAM: The Open Source CFD Toolbox
   \\    /   O peration     | Website:  https://openfoam.org
    \\  /    A nd           | Version:  7
     \\/     M anipulation  |
\*---------------------------------------------------------------------------*/
FoamFile
{
    version     2.0;
    format      binary;
    class       polyBoundaryMesh;
    location    "constant/polyMesh";
    object      boundary;
}
// * * * * * * * * * * * * * * * * * * * * * * * * * * * * * * * * * * * * * //

10
(
    barreldown
    {
        type            wall;
        inGroups        List<word> 1(wall);
        nFaces          0;
        startFace       269327;
    }
    barrelup
    {
        type            wall;
        inGroups        List<word> 1(wall);
        nFaces          10741;
        startFace       269327;
    }
    hopperwall
    {
        type            wall;
        inGroups        List<word> 1(wall);
        nFaces          1379;
        startFace       280068;
    }
    inlet
    {
        type            patch;
        nFaces          0;
        startFace       281447;
    }
    outlet
    {
        type            patch;
        nFaces          0;
        startFace       281447;
    }
    screwup-part-fluido_en_interior3_fluidup
    {
        type            wall;
        inGroups        List<word> 1(wall);
        nFaces          10743;
        startFace       281447;
    }
    screwup-part-fluido_en_interior1_hopper
    {
        type            wall;
        inGroups        List<word> 1(wall);
        nFaces          791;
        startFace       292190;
    }
    screwdown
    {
        type            wall;
        inGroups        List<word> 1(wall);
        nFaces          0;
        startFace       292981;
    }
    procBoundary1to0
    {
        type            processor;
        inGroups        List<word> 1(processor);
        nFaces          657;
        startFace       292981;
        matchTolerance  0.0001;
        transform       unknown;
        myProcNo        1;
        neighbProcNo    0;
    }
    procBoundary1to2
    {
        type            processor;
        inGroups        List<word> 1(processor);
        nFaces          1791;
        startFace       293638;
        matchTolerance  0.0001;
        transform       unknown;
        myProcNo        1;
        neighbProcNo    2;
    }
)

// ************************************************************************* //
