/*--------------------------------*- C++ -*----------------------------------*\
  =========                 |
  \\      /  F ield         | OpenFOAM: The Open Source CFD Toolbox
   \\    /   O peration     | Website:  https://openfoam.org
    \\  /    A nd           | Version:  7
     \\/     M anipulation  |
\*---------------------------------------------------------------------------*/
FoamFile
{
    version     2.0;
    format      ascii;
    class       dictionary;
    location    "system";
    object      topoSetDict;
}
// * * * * * * * * * * * * * * * * * * * * * * * * * * * * * * * * * * * * * //

actions
(
    {
        name    MRFzone;
        type    cellZoneSet;
        action  new;
        source  cylinderToCell;
        sourceInfo
        {
	    p1          (0 0.0045 0);
	    p2          (0 0.0425 0);
	    radius      0.0035;

        }
    }
);

// ************************************************************************* //
