/*--------------------------------*- C++ -*----------------------------------*\
| =========                 |                                                 |
| \\      /  F ield         | OpenFOAM: The Open Source CFD Toolbox           |
|  \\    /   O peration     | Version:  v2112                                 |
|   \\  /    A nd           | Website:  www.openfoam.com                      |
|    \\/     M anipulation  |                                                 |
\*---------------------------------------------------------------------------*/
FoamFile
{
    version     2.0;
    format      ascii;
    class       dictionary;
    object      thermophysicalProperties;
}
// * * * * * * * * * * * * * * * * * * * * * * * * * * * * * * * * * * * * * //

thermoType
{
    type            heRhoThermo;
    mixture         pureMixture;
    transport       polymerK;
    thermo          hPolymer;
    equationOfState rhoPolymerEOS;
    specie          specie;
    energy          sensibleEnthalpy;
}

mixture
{
    specie
    {
        molWeight   150;
    }
    thermodynamics
    {
        Cp          0;
        Hf          0;
    }
    transport
    {
        mu          1.4792e-02;
        Pr          116;
    }
     
equationOfState // Tait EOS Coefficients (PS-Polystyrene)
    {
        b1m         0.000991;
        b2m         7.629e-7;
        b3m         1e+8;
        b4m         0.00494;
        b1s         0.0009969;
        b2s         3.791e-7;
        b3s         9e+7;
        b4s         0.004677;
        b5          362.15;
        b6          1e-7;
    }
}

// ************************************************************************* //
