/*--------------------------------*- C++ -*----------------------------------*\
  =========                 |
  \\      /  F ield         | OpenFOAM: The Open Source CFD Toolbox
   \\    /   O peration     | Website:  https://openfoam.org
    \\  /    A nd           | Version:  7
     \\/     M anipulation  |
\*---------------------------------------------------------------------------*/
FoamFile
{
    version     2.0;
    format      binary;
    class       polyBoundaryMesh;
    location    "constant/polyMesh";
    object      boundary;
}
// * * * * * * * * * * * * * * * * * * * * * * * * * * * * * * * * * * * * * //

7
(
    wall1
    {
        type            wall;
        inGroups        List<word> 1(wall);
        nFaces          3537;
        startFace       71782;
    }
    wall2
    {
        type            wall;
        inGroups        List<word> 1(wall);
        nFaces          0;
        startFace       75319;
    }
    inlet
    {
        type            patch;
        nFaces          0;
        startFace       75319;
    }
    outlet
    {
        type            patch;
        nFaces          0;
        startFace       75319;
    }
    screw
    {
        type            wall;
        inGroups        List<word> 1(wall);
        nFaces          3954;
        startFace       75319;
    }
    procBoundary4to3
    {
        type            processor;
        inGroups        List<word> 1(processor);
        nFaces          540;
        startFace       79273;
        matchTolerance  0.0001;
        transform       unknown;
        myProcNo        4;
        neighbProcNo    3;
    }
    procBoundary4to5
    {
        type            processor;
        inGroups        List<word> 1(processor);
        nFaces          514;
        startFace       79813;
        matchTolerance  0.0001;
        transform       unknown;
        myProcNo        4;
        neighbProcNo    5;
    }
)

// ************************************************************************* //
