/*--------------------------------*- C++ -*----------------------------------*\
  =========                 |
  \\      /  F ield         | OpenFOAM: The Open Source CFD Toolbox
   \\    /   O peration     | Website:  https://openfoam.org
    \\  /    A nd           | Version:  7
     \\/     M anipulation  |
\*---------------------------------------------------------------------------*/
FoamFile
{
    version     2.0;
    format      binary;
    class       polyBoundaryMesh;
    location    "constant/polyMesh";
    object      boundary;
}
// * * * * * * * * * * * * * * * * * * * * * * * * * * * * * * * * * * * * * //

5
(
    inlet
    {
        type            patch;
        nFaces          233;
        startFace       15736;
    }
    outlet
    {
        type            patch;
        nFaces          232;
        startFace       15969;
    }
    statorwall
    {
        type            wall;
        inGroups        List<word> 1(wall);
        nFaces          770;
        startFace       16201;
    }
    rotor
    {
        type            wall;
        inGroups        List<word> 1(wall);
        nFaces          0;
        startFace       16971;
    }
    procBoundary3to2
    {
        type            processor;
        inGroups        List<word> 1(processor);
        nFaces          962;
        startFace       16971;
        matchTolerance  0.0001;
        transform       unknown;
        myProcNo        3;
        neighbProcNo    2;
    }
)

// ************************************************************************* //
