/*--------------------------------*- C++ -*----------------------------------*\
  =========                 |
  \\      /  F ield         | OpenFOAM: The Open Source CFD Toolbox
   \\    /   O peration     | Website:  https://openfoam.org
    \\  /    A nd           | Version:  7
     \\/     M anipulation  |
\*---------------------------------------------------------------------------*/
FoamFile
{
    version     2.0;
    format      binary;
    class       polyBoundaryMesh;
    location    "constant/polyMesh";
    object      boundary;
}
// * * * * * * * * * * * * * * * * * * * * * * * * * * * * * * * * * * * * * //

10
(
    barrelup
    {
        type            wall;
        inGroups        List<word> 1(wall);
        nFaces          0;
        startFace       129184;
    }
    barreldown-component-fluido_en_interior3_layerdown
    {
        type            wall;
        inGroups        List<word> 1(wall);
        nFaces          3019;
        startFace       129184;
    }
    barreldown-component-fluido_en_interior4_fluiddown
    {
        type            wall;
        inGroups        List<word> 1(wall);
        nFaces          2998;
        startFace       132203;
    }
    screwup-component-fluido_en_interior1_fluidscrewup
    {
        type            wall;
        inGroups        List<word> 1(wall);
        nFaces          0;
        startFace       135201;
    }
    screwup-component-fluido_en_interior2_layerup
    {
        type            wall;
        inGroups        List<word> 1(wall);
        nFaces          0;
        startFace       135201;
    }
    screwdown-component-fluido_en_interior3_layerdown
    {
        type            wall;
        inGroups        List<word> 1(wall);
        nFaces          676;
        startFace       135201;
    }
    screwdown-component-fluido_en_interior5_fluidscrewdown
    {
        type            wall;
        inGroups        List<word> 1(wall);
        nFaces          4568;
        startFace       135877;
    }
    inlet
    {
        type            patch;
        nFaces          0;
        startFace       140445;
    }
    outlet
    {
        type            patch;
        nFaces          70;
        startFace       140445;
    }
    procBoundary0to1
    {
        type            processor;
        inGroups        List<word> 1(processor);
        nFaces          873;
        startFace       140515;
        matchTolerance  0.0001;
        transform       unknown;
        myProcNo        0;
        neighbProcNo    1;
    }
)

// ************************************************************************* //
