/*--------------------------------*- C++ -*----------------------------------*\
  =========                 |
  \\      /  F ield         | OpenFOAM: The Open Source CFD Toolbox
   \\    /   O peration     | Website:  https://openfoam.org
    \\  /    A nd           | Version:  7
     \\/     M anipulation  |
\*---------------------------------------------------------------------------*/
FoamFile
{
    version     2.0;
    format      binary;
    class       polyBoundaryMesh;
    location    "constant/polyMesh";
    object      boundary;
}
// * * * * * * * * * * * * * * * * * * * * * * * * * * * * * * * * * * * * * //

7
(
    wall1
    {
        type            wall;
        inGroups        List<word> 1(wall);
        nFaces          3439;
        startFace       71988;
    }
    wall2
    {
        type            wall;
        inGroups        List<word> 1(wall);
        nFaces          0;
        startFace       75427;
    }
    inlet
    {
        type            patch;
        nFaces          0;
        startFace       75427;
    }
    outlet
    {
        type            patch;
        nFaces          0;
        startFace       75427;
    }
    screw
    {
        type            wall;
        inGroups        List<word> 1(wall);
        nFaces          3891;
        startFace       75427;
    }
    procBoundary3to2
    {
        type            processor;
        inGroups        List<word> 1(processor);
        nFaces          639;
        startFace       79318;
        matchTolerance  0.0001;
        transform       unknown;
        myProcNo        3;
        neighbProcNo    2;
    }
    procBoundary3to4
    {
        type            processor;
        inGroups        List<word> 1(processor);
        nFaces          540;
        startFace       79957;
        matchTolerance  0.0001;
        transform       unknown;
        myProcNo        3;
        neighbProcNo    4;
    }
)

// ************************************************************************* //
