/*--------------------------------*- C++ -*----------------------------------*\
  =========                 |
  \\      /  F ield         | OpenFOAM: The Open Source CFD Toolbox
   \\    /   O peration     | Website:  https://openfoam.org
    \\  /    A nd           | Version:  7
     \\/     M anipulation  |
\*---------------------------------------------------------------------------*/
FoamFile
{
    version     2.0;
    format      binary;
    class       polyBoundaryMesh;
    location    "constant/polyMesh";
    object      boundary;
}
// * * * * * * * * * * * * * * * * * * * * * * * * * * * * * * * * * * * * * //

11
(
    barrelup
    {
        type            wall;
        inGroups        List<word> 1(wall);
        nFaces          2924;
        startFace       128280;
    }
    barreldown-component-fluido_en_interior3_layerdown
    {
        type            wall;
        inGroups        List<word> 1(wall);
        nFaces          550;
        startFace       131204;
    }
    barreldown-component-fluido_en_interior4_fluiddown
    {
        type            wall;
        inGroups        List<word> 1(wall);
        nFaces          0;
        startFace       131754;
    }
    screwup-component-fluido_en_interior1_fluidscrewup
    {
        type            wall;
        inGroups        List<word> 1(wall);
        nFaces          6309;
        startFace       131754;
    }
    screwup-component-fluido_en_interior2_layerup
    {
        type            wall;
        inGroups        List<word> 1(wall);
        nFaces          1064;
        startFace       138063;
    }
    screwdown-component-fluido_en_interior3_layerdown
    {
        type            wall;
        inGroups        List<word> 1(wall);
        nFaces          210;
        startFace       139127;
    }
    screwdown-component-fluido_en_interior5_fluidscrewdown
    {
        type            wall;
        inGroups        List<word> 1(wall);
        nFaces          1090;
        startFace       139337;
    }
    inlet
    {
        type            patch;
        nFaces          0;
        startFace       140427;
    }
    outlet
    {
        type            patch;
        nFaces          0;
        startFace       140427;
    }
    procBoundary2to1
    {
        type            processor;
        inGroups        List<word> 1(processor);
        nFaces          919;
        startFace       140427;
        matchTolerance  0.0001;
        transform       unknown;
        myProcNo        2;
        neighbProcNo    1;
    }
    procBoundary2to3
    {
        type            processor;
        inGroups        List<word> 1(processor);
        nFaces          946;
        startFace       141346;
        matchTolerance  0.0001;
        transform       unknown;
        myProcNo        2;
        neighbProcNo    3;
    }
)

// ************************************************************************* //
